                                  MODFLOW-NWT-SWR1 
      U.S. GEOLOGICAL SURVEY MODULAR FINITE-DIFFERENCE GROUNDWATER-FLOW MODEL
                            VERSION 1.3.0 07/01/2022
                    BASED ON MODFLOW-2005 VERSION 1.12.00 02/03/2017

 LIST FILE: ModeloD.list
                         UNIT    2

 OPENING ModeloD.dis
 FILE TYPE:DIS   UNIT   11   STATUS:OLD    
 FORMAT:FORMATTED              ACCESS:SEQUENTIAL          

 OPENING ModeloD.bas
 FILE TYPE:BAS6   UNIT   13   STATUS:OLD    
 FORMAT:FORMATTED              ACCESS:SEQUENTIAL          

 OPENING ModeloD.lpf
 FILE TYPE:LPF   UNIT   15   STATUS:OLD    
 FORMAT:FORMATTED              ACCESS:SEQUENTIAL          

 OPENING ModeloD.rch
 FILE TYPE:RCH   UNIT   19   STATUS:OLD    
 FORMAT:FORMATTED              ACCESS:SEQUENTIAL          

 OPENING ModeloD.riv
 FILE TYPE:RIV   UNIT   18   STATUS:OLD    
 FORMAT:FORMATTED              ACCESS:SEQUENTIAL          

 OPENING ModeloD.pcg
 FILE TYPE:PCG   UNIT   27   STATUS:OLD    
 FORMAT:FORMATTED              ACCESS:SEQUENTIAL          

 OPENING ModeloD.oc
 FILE TYPE:OC   UNIT   14   STATUS:OLD    
 FORMAT:FORMATTED              ACCESS:SEQUENTIAL          

 OPENING ModeloD.cbc
 FILE TYPE:DATA(BINARY)   UNIT   53   STATUS:REPLACE
 FORMAT:BINARY                 ACCESS:SEQUENTIAL          

 OPENING ModeloD.hds
 FILE TYPE:DATA(BINARY)   UNIT   51   STATUS:REPLACE
 FORMAT:BINARY                 ACCESS:SEQUENTIAL          

 OPENING ModeloD.ddn
 FILE TYPE:DATA(BINARY)   UNIT   52   STATUS:REPLACE
 FORMAT:BINARY                 ACCESS:SEQUENTIAL          

 BAS -- BASIC PACKAGE, VERSION 1.3.0, 7/01/2022 INPUT READ FROM UNIT   13
 
 MODFLOW was compiled using mixed precision
 Precision of REAL variables:           6
 Precision of DOUBLE PRECISION variables:          15

 DISCRETIZATION INPUT DATA READ FROM UNIT   11
 # DIS package for MODFLOW-2005 generated by Flopy 3.4.3
    1 LAYERS        50 ROWS         9 COLUMNS
    1 STRESS PERIOD(S) IN SIMULATION
 MODEL TIME UNIT IS DAYS
 MODEL LENGTH UNIT IS METERS
  Confining bed flag for each layer:
   0

                     DELR =   500.000    

                     DELC =   500.000    



           TOP ELEVATION OF LAYER 1
 READING ON UNIT   11 WITH FORMAT: (9E15.6)            

   MODEL LAYER BOTTOM EL. =   980.000     FOR LAYER   1


 STRESS PERIOD     LENGTH       TIME STEPS     MULTIPLIER FOR DELT    SS FLAG
 ----------------------------------------------------------------------------
        1         1.000000          1                    1.000         SS

 STEADY-STATE SIMULATION



 
 # BAS6 package for MODFLOW-2005 generated by Flopy 3.4.3                        
 THE FREE FORMAT OPTION HAS BEEN SELECTED



                     BOUNDARY ARRAY FOR LAYER   1
 READING ON UNIT   13 WITH FORMAT: (9I10)              

 AQUIFER HEAD WILL BE SET TO  -999.99     AT ALL NO-FLOW NODES (IBOUND=0).



                       INITIAL HEAD FOR LAYER   1
 READING ON UNIT   13 WITH FORMAT: (9E15.6)            
 # OC package for MODFLOW-2005 generated by Flopy 3.4.3

 OUTPUT CONTROL IS SPECIFIED ONLY AT TIME STEPS FOR WHICH OUTPUT IS DESIRED
 HEAD PRINT FORMAT CODE IS   0    DRAWDOWN PRINT FORMAT CODE IS   0
 HEADS WILL BE SAVED ON UNIT   51    DRAWDOWNS WILL BE SAVED ON UNIT   52

 LPF -- LAYER-PROPERTY FLOW PACKAGE, VERSION 7, 5/2/2005
         INPUT READ FROM UNIT   15
 # LPF package for MODFLOW-2005 generated by Flopy 3.4.3
 CELL-BY-CELL FLOWS WILL BE SAVED ON UNIT   53
 HEAD AT CELLS THAT CONVERT TO DRY= -1.00000E+30
 No named parameters

   LAYER FLAGS:
 LAYER       LAYTYP        LAYAVG         CHANI        LAYVKA        LAYWET
 ---------------------------------------------------------------------------
    1             0             0     1.000E+00             0             0

   INTERPRETATION OF LAYER FLAGS:
                        INTERBLOCK     HORIZONTAL    DATA IN
         LAYER TYPE   TRANSMISSIVITY   ANISOTROPY   ARRAY VKA   WETTABILITY
 LAYER      (LAYTYP)      (LAYAVG)       (CHANI)      (LAYVKA)      (LAYWET)
 ---------------------------------------------------------------------------
    1      CONFINED      HARMONIC     1.000E+00    VERTICAL K  NON-WETTABLE

 WETTING CAPABILITY IS NOT ACTIVE IN ANY LAYER

    HYD. COND. ALONG ROWS =   50.0000     FOR LAYER   1

      VERTICAL HYD. COND. =   1.00000     FOR LAYER   1

 RIV -- RIVER PACKAGE, VERSION 7, 5/2/2005 INPUT READ FROM UNIT   18
 # RIV package for MODFLOW-2005 generated by Flopy 3.4.3
 No named parameters
 MAXIMUM OF      9 ACTIVE RIVER REACHES AT ONE TIME
 CELL-BY-CELL FLOWS WILL BE SAVED ON UNIT   53


     0 River parameters

 RCH -- RECHARGE PACKAGE, VERSION 7, 5/2/2005 INPUT READ FROM UNIT   19
 # RCH package for MODFLOW-2005 generated by Flopy 3.4.3
 No named parameters
 OPTION 3 -- RECHARGE TO HIGHEST ACTIVE NODE IN EACH VERTICAL COLUMN


     0 Recharge parameters

 PCG -- CONJUGATE-GRADIENT SOLUTION PACKAGE, VERSION 7, 5/2/2005
 # PCG package for MODFLOW-2005 generated by Flopy 3.4.3
 MAXIMUM OF    100 CALLS OF SOLUTION ROUTINE
 MAXIMUM OF     60 INTERNAL ITERATIONS PER CALL TO SOLUTION ROUTINE
 MATRIX PRECONDITIONING TYPE :    1



                                    SOLUTION BY THE CONJUGATE-GRADIENT METHOD
                                   -------------------------------------------
                    MAXIMUM NUMBER OF CALLS TO PCG ROUTINE =      100
                        MAXIMUM ITERATIONS PER CALL TO PCG =       60
                               MATRIX PRECONDITIONING TYPE =        1
        RELAXATION FACTOR (ONLY USED WITH PRECOND. TYPE 1) =    0.10000E+01
 PARAMETER OF POLYNOMIAL PRECOND. = 2 (2) OR IS CALCULATED :        0
                         HEAD CHANGE CRITERION FOR CLOSURE =    0.10000E-02
                     RESIDUAL CHANGE CRITERION FOR CLOSURE =    0.10000E-02
            PCG HEAD AND RESIDUAL CHANGE PRINTOUT INTERVAL =      999
     PRINTING FROM SOLVER IS LIMITED(1) OR SUPPRESSED (>1) =        3
                            STEADY-STATE DAMPING PARAMETER =    0.10000E+01
                               TRANSIENT DAMPING PARAMETER =    0.10000E+01
1
                            STRESS PERIOD NO.    1, LENGTH =   1.000000    
                            -----------------------------------------------

                              NUMBER OF TIME STEPS =     1

                               MULTIPLIER FOR DELT =     1.000

                            INITIAL TIME STEP SIZE =   1.000000    

 REACH NO.  LAYER   ROW   COL     STAGE      CONDUCTANCE     BOTTOM EL.         
 -------------------------------------------------------------------------------
      1      1      1      1       1000.           125.0           995.0    
      2      1      1      2       1000.           125.0           995.0    
      3      1      1      3       1000.           125.0           995.0    
      4      1      1      4       1000.           125.0           995.0    
      5      1      1      5       1000.           125.0           995.0    
      6      1      1      6       1000.           125.0           995.0    
      7      1      1      7       1000.           125.0           995.0    
      8      1      1      8       1000.           125.0           995.0    
      9      1      1      9       1000.           125.0           995.0    

      9 RIVER REACHES



                           RECHARGE
 READING ON UNIT   19 WITH FORMAT: (9E15.6)            
 
 SOLVING FOR HEAD 

 OUTPUT CONTROL FOR STRESS PERIOD    1   TIME STEP    1
    PRINT HEAD FOR ALL LAYERS
    PRINT BUDGET
    SAVE HEAD FOR ALL LAYERS
    SAVE BUDGET
    SAVE DRAWDOWN FOR ALL LAYERS
 UBUDSV SAVING "   CONSTANT HEAD" ON UNIT 53 AT TIME STEP  1, STRESS PERIOD    1
 UBUDSV SAVING "FLOW RIGHT FACE " ON UNIT 53 AT TIME STEP  1, STRESS PERIOD    1
 UBUDSV SAVING "FLOW FRONT FACE " ON UNIT 53 AT TIME STEP  1, STRESS PERIOD    1
 UBUDSV SAVING "   RIVER LEAKAGE" ON UNIT 53 AT TIME STEP  1, STRESS PERIOD    1
1
              HEAD IN LAYER   1 AT END OF TIME STEP   1 IN STRESS PERIOD    1
  ---------------------------------------------------------------------------

            1           2           3           4           5           6           7           8           9
 ............................................................................................................
   1    1004.       1004.       1004.       1004.       1004.       1004.       1004.       1004.       1004.    
   2    1004.       1004.       1004.       1004.       1004.       1004.       1004.       1004.       1004.    
   3    1005.       1005.       1005.       1005.       1005.       1005.       1005.       1005.       1005.    
   4    1005.       1005.       1005.       1005.       1005.       1005.       1005.       1005.       1005.    
   5    1005.       1005.       1005.       1005.       1005.       1005.       1005.       1005.       1005.    
   6    1006.       1006.       1006.       1006.       1006.       1006.       1006.       1006.       1006.    
   7    1006.       1006.       1006.       1006.       1006.       1006.       1006.       1006.       1006.    
   8    1006.       1006.       1006.       1006.       1006.       1006.       1006.       1006.       1006.    
   9    1006.       1006.       1006.       1006.       1006.       1006.       1006.       1006.       1006.    
  10    1007.       1007.       1007.       1007.       1007.       1007.       1007.       1007.       1007.    
  11    1007.       1007.       1007.       1007.       1007.       1007.       1007.       1007.       1007.    
  12    1007.       1007.       1007.       1007.       1007.       1007.       1007.       1007.       1007.    
  13    1007.       1007.       1007.       1007.       1007.       1007.       1007.       1007.       1007.    
  14    1007.       1007.       1007.       1007.       1007.       1007.       1007.       1007.       1007.    
  15    1007.       1007.       1007.       1007.       1007.       1007.       1007.       1007.       1007.    
  16    1007.       1007.       1007.       1007.       1007.       1007.       1007.       1007.       1007.    
  17    1007.       1007.       1007.       1007.       1007.       1007.       1007.       1007.       1007.    
  18    1007.       1007.       1007.       1007.       1007.       1007.       1007.       1007.       1007.    
  19    1007.       1007.       1007.       1007.       1007.       1007.       1007.       1007.       1007.    
  20    1007.       1007.       1007.       1007.       1007.       1007.       1007.       1007.       1007.    
  21    1007.       1007.       1007.       1007.       1007.       1007.       1007.       1007.       1007.    
  22    1007.       1007.       1007.       1007.       1007.       1007.       1007.       1007.       1007.    
  23    1007.       1007.       1007.       1007.       1007.       1007.       1007.       1007.       1007.    
  24    1007.       1007.       1007.       1007.       1007.       1007.       1007.       1007.       1007.    
  25    1007.       1007.       1007.       1007.       1007.       1007.       1007.       1007.       1007.    
  26    1007.       1007.       1007.       1007.       1007.       1007.       1007.       1007.       1007.    
  27    1007.       1007.       1007.       1007.       1007.       1007.       1007.       1007.       1007.    
  28    1007.       1007.       1007.       1007.       1007.       1007.       1007.       1007.       1007.    
  29    1007.       1007.       1007.       1007.       1007.       1007.       1007.       1007.       1007.    
  30    1007.       1007.       1007.       1007.       1007.       1007.       1007.       1007.       1007.    
  31    1007.       1007.       1007.       1007.       1007.       1007.       1007.       1007.       1007.    
  32    1006.       1006.       1006.       1006.       1006.       1006.       1006.       1006.       1006.    
  33    1006.       1006.       1006.       1006.       1006.       1006.       1006.       1006.       1006.    
  34    1006.       1006.       1006.       1006.       1006.       1006.       1006.       1006.       1006.    
  35    1006.       1006.       1006.       1006.       1006.       1006.       1006.       1006.       1006.    
  36    1006.       1006.       1006.       1006.       1006.       1006.       1006.       1006.       1006.    
  37    1005.       1005.       1005.       1005.       1005.       1005.       1005.       1005.       1005.    
  38    1005.       1005.       1005.       1005.       1005.       1005.       1005.       1005.       1005.    
  39    1005.       1005.       1005.       1005.       1005.       1005.       1005.       1005.       1005.    
  40    1005.       1005.       1005.       1005.       1005.       1005.       1005.       1005.       1005.    
  41    1004.       1004.       1004.       1004.       1004.       1004.       1004.       1004.       1004.    
  42    1004.       1004.       1004.       1004.       1004.       1004.       1004.       1004.       1004.    
  43    1004.       1004.       1004.       1004.       1004.       1004.       1004.       1004.       1004.    
  44    1003.       1003.       1003.       1003.       1003.       1003.       1003.       1003.       1003.    
  45    1003.       1003.       1003.       1003.       1003.       1003.       1003.       1003.       1003.    
  46    1002.       1002.       1002.       1002.       1002.       1002.       1002.       1002.       1002.    
  47    1002.       1002.       1002.       1002.       1002.       1002.       1002.       1002.       1002.    
  48    1001.       1001.       1001.       1001.       1001.       1001.       1001.       1001.       1001.    
  49    1001.       1001.       1001.       1001.       1001.       1001.       1001.       1001.       1001.    
  50    1000.       1000.       1000.       1000.       1000.       1000.       1000.       1000.       1000.    

 HEAD WILL BE SAVED ON UNIT   51 AT END OF TIME STEP    1, STRESS PERIOD    1

 DRAWDOWN WILL BE SAVED ON UNIT   52 AT END OF TIME STEP    1, STRESS PERIOD    1
1
  VOLUMETRIC BUDGET FOR ENTIRE MODEL AT END OF TIME STEP    1, STRESS PERIOD   1
  ------------------------------------------------------------------------------

     CUMULATIVE VOLUMES      L**3       RATES FOR THIS TIME STEP      L**3/T
     ------------------                 ------------------------

           IN:                                      IN:
           ---                                      ---
             STORAGE     =           0.0000               STORAGE     =           0.0000
       CONSTANT HEAD     =           0.0000         CONSTANT HEAD     =           0.0000
       RIVER LEAKAGE     =           0.0000         RIVER LEAKAGE     =           0.0000
            RECHARGE     =       11024.9990              RECHARGE     =       11024.9990

                TOTAL IN =       11024.9990                  TOTAL IN =       11024.9990

          OUT:                                     OUT:
          ----                                     ----
             STORAGE     =           0.0000               STORAGE     =           0.0000
       CONSTANT HEAD     =        6639.5776         CONSTANT HEAD     =        6639.5776
       RIVER LEAKAGE     =        4385.4214         RIVER LEAKAGE     =        4385.4214
            RECHARGE     =           0.0000              RECHARGE     =           0.0000

               TOTAL OUT =       11024.9990                 TOTAL OUT =       11024.9990

                IN - OUT =           0.0000                  IN - OUT =           0.0000

     PERCENT DISCREPANCY =           0.00         PERCENT DISCREPANCY =           0.00






         TIME SUMMARY AT END OF TIME STEP    1 IN STRESS PERIOD    1
                    SECONDS     MINUTES      HOURS       DAYS        YEARS
                    -----------------------------------------------------------
   TIME STEP LENGTH  86400.      1440.0      24.000      1.0000     2.73785E-03
 STRESS PERIOD TIME  86400.      1440.0      24.000      1.0000     2.73785E-03
         TOTAL TIME  86400.      1440.0      24.000      1.0000     2.73785E-03
1

 Run end date and time (yyyy/mm/dd hh:mm:ss): 2023/10/30 15:45:56
 Elapsed run time:  0.022 Seconds

